*Heading
** Job name: TriangularMode2TPU_HT_PATTERN Model name: TriangularMode2TPU_HT_PATTERN
** Generated by: Abaqus/CAE 2017
*Preprint, echo=NO, model=NO, history=NO, contact=NO
**
** PARTS
**
*Part, name=TPU
*Node
      1,   15.3603125,    22.192894
      2,   15.3603125,    27.192894
      3,   14.3603125,   23.9249439
      4,   14.3603125,   26.0658779
      5,   14.3603125,    27.192894
      6,   14.3603125,    22.192894
      7,   19.4942875,   31.3531475
      8,   23.8244152,   33.8531494
      9,   20.4942875,   33.0851974
     10,   22.3483887,   34.1556664
     11,   23.3244152,   34.7191734
     12,   18.9942875,   32.2191734
     13,   29.4942875,   32.3531494
     14,   33.8244133,   29.8531475
     15,   31.4942875,   32.3531494
     16,   33.3483887,   31.2826824
     17,   34.3244133,   30.7191734
     18,   29.9942875,   33.2191734
     19,   35.3603134,    24.192894
     20,   35.3603134,    19.192894
** ... 5149 like lines cut
*Element, type=CPE4
 1,    1,  140, 1826,  183
 2,  140,  141, 1827, 1826
 3,  141,  142, 1828, 1827
 4,  142,  143, 1829, 1828
 5,  143,  144, 1830, 1829
 6,  144,  145, 1831, 1830
 7,  145,  146, 1832, 1831
 8,  146,  147, 1833, 1832
 9,  147,  148, 1834, 1833
10,  148,  149, 1835, 1834
11,  149,  150, 1836, 1835
12,  150,  151, 1837, 1836
13,  151,  152, 1838, 1837
14,  152,  153, 1839, 1838
15,  153,  154, 1840, 1839
16,  154,  155, 1841, 1840
17,  155,  156, 1842, 1841
18,  156,  157, 1843, 1842
19,  157,  158, 1844, 1843
20,  158,  159, 1845, 1844
** ... 2536 like lines cut
*Element, type=CPE3
2557, 3533, 3530, 3532
2558, 3532, 1382, 1383
2559, 3541, 3533, 3534
2560, 3531, 1389, 1390
2561, 3546, 3542, 3543
2562, 3540, 3534, 3535
2563, 3536, 3535, 1386
2564, 1387,   41,  479
2565, 3543, 3542, 3540
2566, 3546,  405, 3544
2567, 3544,  404, 3538
2568, 1388,  404,   37
2569, 1393,  127, 1382
2570, 3532, 1392, 1393
2571, 3530, 1391, 1392
2572, 3537, 1391, 3530
2573, 3537, 1390, 1391
2574, 3538, 1389, 3531
2575, 3532, 3530, 1392
2576, 3534, 3533, 1384
** ... 3968 like lines cut
*Nset, nset=Set-1, generate
    1,  5169,     1
*Elset, elset=Set-1, generate
    1,  6544,     1
** Section: TPU
*Solid Section, elset=Set-1, material=TPU
5.,
*End Part
**  
**
** ASSEMBLY
**
*Assembly, name=Assembly
**  
*Instance, name=TPU-1, part=TPU
  -25.360313,   -23.192894,           0.
*End Instance
**  
*Nset, nset=Set-26, instance=TPU-1, generate
    1,  5169,     1
*Elset, elset=Set-26, instance=TPU-1, generate
    1,  6544,     1
*Nset, nset=m_Set-20, instance=TPU-1
 83,
*Nset, nset=m_Set-21, instance=TPU-1
 75,
*Nset, nset=m_Set-22, instance=TPU-1
 72,
*Nset, nset=m_Set-23, instance=TPU-1
 88,
*Nset, nset=m_Set-24, instance=TPU-1
 80,
*Nset, nset=m_Set-25, instance=TPU-1
 67,
*Nset, nset=middle, instance=TPU-1
 127,
*Nset, nset=point1, instance=TPU-1
 19,
*Nset, nset=point1far, instance=TPU-1
 83,
*Nset, nset=point1part, instance=TPU-1
   24,  105,  313,  314,  315, 1238, 1239, 1240
*Nset, nset=point2, instance=TPU-1
 13,
*Nset, nset=point2far, instance=TPU-1
 75,
*Nset, nset=point2part, instance=TPU-1
   13,   18,  121,  269,  270,  271, 1334, 1335, 1336
*Elset, elset=point2part, instance=TPU-1
  169,  190,  211,  232, 2409, 2430, 2451, 2472
*Nset, nset=point3, instance=TPU-1
 7,
*Nset, nset=point3far, instance=TPU-1
 72,
*Nset, nset=point3part, instance=TPU-1
    7,   12,  125,  225,  226,  227, 1358, 1359, 1360
*Elset, elset=point3part, instance=TPU-1
   85,  106,  127,  148, 2493, 2514, 2535, 2556
*Nset, nset=point4, instance=TPU-1
 1,
*Nset, nset=point4far, instance=TPU-1
 88,
*Nset, nset=point4part, instance=TPU-1
    1,    6,  117,  181,  182,  183, 1310, 1311, 1312
*Elset, elset=point4part, instance=TPU-1
    1,   22,   43,   64, 2325, 2346, 2367, 2388
*Nset, nset=point5, instance=TPU-1
 31,
*Nset, nset=point5far, instance=TPU-1
 80,
*Nset, nset=point5part, instance=TPU-1
   31,   36,  113,  401,  402,  403, 1286, 1287, 1288
*Elset, elset=point5part, instance=TPU-1
  421,  442,  463,  484, 2241, 2262, 2283, 2304
*Nset, nset=point6, instance=TPU-1
 25,
*Nset, nset=point6far, instance=TPU-1
 67,
*Nset, nset=point6part, instance=TPU-1
   25,   30,  109,  357,  358,  359, 1262, 1263, 1264
*Elset, elset=point6part, instance=TPU-1
  337,  358,  379,  400, 2157, 2178, 2199, 2220
*Elset, elset=_s_Surf-1_S4, internal, instance=TPU-1, generate
 1453,  1503,    25
*Elset, elset=_s_Surf-1_S2, internal, instance=TPU-1, generate
 1852,  1902,    25
*Surface, type=ELEMENT, name=s_Surf-1
_s_Surf-1_S4, S4
_s_Surf-1_S2, S2
*Elset, elset=_s_Surf-2_S4, internal, instance=TPU-1, generate
 1303,  1353,    25
*Elset, elset=_s_Surf-2_S2, internal, instance=TPU-1, generate
 2002,  2052,    25
*Surface, type=ELEMENT, name=s_Surf-2
_s_Surf-2_S4, S4
_s_Surf-2_S2, S2
*Elset, elset=_s_Surf-3_S2, internal, instance=TPU-1, generate
 1252,  1302,    25
*Elset, elset=_s_Surf-3_S4, internal, instance=TPU-1, generate
 1753,  1803,    25
*Surface, type=ELEMENT, name=s_Surf-3
_s_Surf-3_S2, S2
_s_Surf-3_S4, S4
*Elset, elset=_s_Surf-4_S2, internal, instance=TPU-1, generate
 1552,  1602,    25
*Elset, elset=_s_Surf-4_S4, internal, instance=TPU-1, generate
 1603,  1653,    25
*Surface, type=ELEMENT, name=s_Surf-4
_s_Surf-4_S2, S2
_s_Surf-4_S4, S4
*Elset, elset=_s_Surf-5_S2, internal, instance=TPU-1, generate
 1402,  1452,    25
*Elset, elset=_s_Surf-5_S4, internal, instance=TPU-1, generate
 1903,  1953,    25
*Surface, type=ELEMENT, name=s_Surf-5
_s_Surf-5_S2, S2
_s_Surf-5_S4, S4
*Elset, elset=_s_Surf-6_S4, internal, instance=TPU-1, generate
 1153,  1203,    25
*Elset, elset=_s_Surf-6_S2, internal, instance=TPU-1, generate
 1702,  1752,    25
*Surface, type=ELEMENT, name=s_Surf-6
_s_Surf-6_S4, S4
_s_Surf-6_S2, S2
*Nset, nset="_T-Datum csys-2", internal
point2far, 
point2, 
point2part, 
*Transform, nset="_T-Datum csys-2"
0.50000035334422, 0.866025199780962,           0., -0.866025199780962, 0.50000035334422,           0.
*Nset, nset="_T-Datum csys-3", internal
point3far, 
point3, 
point3part, 
*Transform, nset="_T-Datum csys-3"
-0.499999960444514, 0.866025426621808,           0., -0.866025426621808, -0.499999960444514,           0.
*Nset, nset="_T-Datum csys-5", internal
point5far, 
point5, 
point5part, 
*Transform, nset="_T-Datum csys-5"
-0.499999996343382, -0.866025405895588,           0., 0.866025405895588, -0.499999996343382,           0.
*Nset, nset="_T-Datum csys-4", internal
point4far, 
point4, 
point4part, 
*Transform, nset="_T-Datum csys-4"
-0.999999999999999,  4.14524345735471e-08,           0.,  -4.14524345735471e-08, -0.999999999999999,           0.
*Nset, nset="_T-Datum csys-6", internal
point6far, 
point6, 
point6part, 
*Transform, nset="_T-Datum csys-6"
0.500000389243098, -0.866025179054715,           0., 0.866025179054715, 0.500000389243098,           0.
** Constraint: coupling1
*Coupling, constraint name=coupling1, ref node=m_Set-20, surface=s_Surf-1
*Kinematic
** Constraint: coupling2
*Coupling, constraint name=coupling2, ref node=m_Set-21, surface=s_Surf-2
*Kinematic
** Constraint: coupling3
*Coupling, constraint name=coupling3, ref node=m_Set-22, surface=s_Surf-3
*Kinematic
** Constraint: coupling4
*Coupling, constraint name=coupling4, ref node=m_Set-23, surface=s_Surf-4
*Kinematic
** Constraint: coupling5
*Coupling, constraint name=coupling5, ref node=m_Set-24, surface=s_Surf-5
*Kinematic
** Constraint: coupling6
*Coupling, constraint name=coupling6, ref node=m_Set-25, surface=s_Surf-6
*Kinematic
** Constraint: farpoint12x
*Equation
2
point2far, 1, 1.
point1far, 1, -1.
** Constraint: farpoint12y
*Equation
2
point2far, 2, 1.
point1far, 2, -1.
** Constraint: farpoint13x
*Equation
2
point3far, 1, 1.
point1far, 1, -1.
** Constraint: farpoint13y
*Equation
2
point3far, 2, 1.
point1far, 2, -1.
** Constraint: farpoint14x
*Equation
2
point4far, 1, 1.
point1far, 1, -1.
** Constraint: farpoint14y
*Equation
2
point4far, 2, 1.
point1far, 2, -1.
** Constraint: farpoint15x
*Equation
2
point5far, 1, 1.
point1far, 1, -1.
** Constraint: farpoint15y
*Equation
2
point5far, 2, 1.
point1far, 2, -1.
** Constraint: farpoint16x
*Equation
2
point6far, 1, 1.
point1far, 1, -1.
** Constraint: farpoint16y
*Equation
2
point6far, 2, 1.
point1far, 2, -1.
** Constraint: point1
*Equation
2
point1part, 2, 1.
point1, 2, -1.
** Constraint: point2
*Equation
2
point2, 1, 1.
point1, 1, -1.
** Constraint: point3
*Equation
2
point3, 1, 1.
point1, 1, -1.
** Constraint: point4
*Equation
2
point4, 1, 1.
point1, 1, -1.
** Constraint: point5
*Equation
2
point5, 1, 1.
point1, 1, -1.
** Constraint: point6
*Equation
2
point6, 1, 1.
point1, 1, -1.
** Constraint: point12
*Equation
2
point2part, 2, 1.
point1, 2, -1.
** Constraint: point13
*Equation
2
point3part, 2, 1.
point1, 2, -1.
** Constraint: point14
*Equation
2
point4part, 2, 1.
point1, 2, -1.
** Constraint: point15
*Equation
2
point5part, 2, 1.
point1, 2, -1.
** Constraint: point16
*Equation
2
point6part, 2, 1.
point1, 2, -1.
*End Assembly
** 
** MATERIALS
** 
*Material, name=TPU
*Elastic
 95.4141,   0.32, 18.017
 95.0917,   0.32,  18.14
 94.6418,   0.32, 18.301
 94.1044,   0.32, 18.478
 93.5199,   0.32, 18.639
 93.0493,   0.32, 18.786
 92.6903,   0.32, 18.913
 92.3012,   0.32, 19.015
 91.6654,   0.32, 19.173
 91.2036,   0.32, 19.327
 90.6791,   0.32, 19.523
 90.2388,   0.32, 19.699
 89.8706,   0.32,  19.85
 89.3535,   0.32, 19.985
 88.9383,   0.32, 20.109
 88.5272,   0.32, 20.234
 87.9949,   0.32, 20.434
 87.6281,   0.32, 20.573
 87.1839,   0.32, 20.717
 86.6956,   0.32, 20.852
** ... 407 like lines cut
** 
** BOUNDARY CONDITIONS
** 
** Name: middle Type: Displacement/Rotation
*Boundary
middle, 1, 1
middle, 2, 2
** Name: point1 Type: Displacement/Rotation
*Boundary
point1, 1, 1
point1, 2, 2
** Name: point1far Type: Displacement/Rotation
*Boundary
point1far, 1, 1
point1far, 2, 2
** 
** PREDEFINED FIELDS
** 
** Name: Predefined Field-1   Type: Temperature
*Initial Conditions, type=TEMPERATURE
Set-26, 80.
** ----------------------------------------------------------------
** 
** STEP: assemble
** 
*Step, name=assemble, nlgeom=YES
*Static, direct
0.01, 1., 
** 
** BOUNDARY CONDITIONS
** 
** Name: point1 Type: Displacement/Rotation
*Boundary
point1, 1, 1, 0.0012
point1, 2, 2, -0.12
** Name: point1far Type: Displacement/Rotation
*Boundary
point1far, 1, 1, 0.0024
** 
** OUTPUT REQUESTS
** 
*Restart, write, frequency=0
** 
** FIELD OUTPUT: F-Output-1
** 
*Output, field, variable=PRESELECT
** 
** HISTORY OUTPUT: H-Output-3
** 
*Output, history
*Energy Output
ALLSE, 
** 
** HISTORY OUTPUT: H-Output-2
** 
*Node Output, nset=point1
U1, U2
** 
** HISTORY OUTPUT: H-Output-1
** 
*Output, history, variable=PRESELECT
*End Step
