*Heading
** Job name: TriangularMode2PLA_HT_PATTERN Model name: TriangularMode2PLA_HT_PATTERN
** Generated by: Abaqus/CAE 2017
*Preprint, echo=NO, model=NO, history=NO, contact=NO
**
** PARTS
**
*Part, name=PLA
*Node
      1,   9.27680397,   -4.2696557
      2,     8.410779,   -4.7696557
      3,   12.8982792,  -12.5422335
      4,   13.7643042,  -12.0422335
      5, -0.832170188,   -4.7696557
      6,  -1.69819558,   -4.2696557
      7,  -6.18569565,  -12.0422335
      8,   -5.3196702,  -12.5422335
      9,   14.7643042,   5.23497295
     10,   14.7643042,   4.23497295
     11,   23.7393036,   4.23497295
     12,   23.7393036,   5.23497295
     13,   10.1428299,   -3.7696557
     14,   14.6303301,  -11.5422335
     15,   8.77680397,  -3.40363026
     16,     7.910779,  -3.90363026
     17, -0.332170188,  -3.90363026
     18,  -1.19819558,  -3.40363026
     19,  -2.56422091,   -3.7696557
     20,   -7.0517211,  -11.5422335
** ... 4133 like lines cut
*Element, type=CPE4
   1,    1,   86, 1544,  161
   2,   86,   87, 1545, 1544
   3,   87,   88, 1546, 1545
   4,   88,    2,   89, 1546
   5,  161, 1544, 1547,  160
   6, 1544, 1545, 1548, 1547
   7, 1545, 1546, 1549, 1548
   8, 1546,   89,   90, 1549
   9,  160, 1547, 1550,  159
  10, 1547, 1548, 1551, 1550
  11, 1548, 1549, 1552, 1551
  12, 1549,   90,   91, 1552
  13,  159, 1550, 1553,  158
  14, 1550, 1551, 1554, 1553
  15, 1551, 1552, 1555, 1554
  16, 1552,   91,   92, 1555
  17,  158, 1553, 1556,  157
  18, 1553, 1554, 1557, 1556
  19, 1554, 1555, 1558, 1557
  20, 1555,   92,   93, 1558
** ... 3484 like lines cut
*Element, type=CPE3
3505, 4028, 1508, 1509
3506, 4029, 4028, 1509
3507, 4030, 4029, 1510
3508, 4044, 4037, 4029
3509, 4046, 4040, 4039
3510, 4031, 4030, 1511
3511, 4032, 4031, 1512
3512, 1513,   57,  932
3513, 4033,   56,  873
3514, 4045, 4041, 4032
3515, 4034,  930, 4033
3516, 1514,  871,   55
3517, 4040,  871, 1514
3518, 4048, 4041, 4047
3519, 1519,   85, 1508
3520, 4028, 1518, 1519
3521, 4037, 1518, 4028
3522, 4038, 1517, 4037
3523, 4039, 1516, 4038
3524, 4040, 1514, 1515
** ... 352 like lines cut
*Nset, nset=SET-1, generate
    1,  4153,     1
*Elset, elset=SET-1, generate
    1,  3876,     1
** Section: Section-1-SET-1
*Solid Section, elset=SET-1, material=PLA
2.,
*End Part
**  
**
** ASSEMBLY
**
*Assembly, name=Assembly
**  
*Instance, name=PLA-1, part=PLA
   -3.789304,    -5.234973,           0.
*End Instance
**  
*Nset, nset=POINT1, instance=PLA-1
 32,
*Nset, nset=POINT1FAR, instance=PLA-1
 12,
*Nset, nset=POINT1PART, instance=PLA-1
  10,  53, 613, 614, 615, 834, 835, 836
*Nset, nset=POINT2, instance=PLA-1
 50,
*Nset, nset=POINT2FAR, instance=PLA-1
 25,
*Nset, nset=POINT2PART, instance=PLA-1
   27,   50,   68,  819,  820,  821, 1041, 1042, 1043
*Elset, elset=POINT2PART, instance=PLA-1
 1713, 1717, 1721, 1725, 2236, 2240, 2244, 2248
*Nset, nset=POINT3, instance=PLA-1
 77,
*Nset, nset=POINT3FAR, instance=PLA-1
 44,
*Nset, nset=POINT3PART, instance=PLA-1
   64,   77,   83, 1251, 1252, 1253, 1443, 1444, 1445
*Elset, elset=POINT3PART, instance=PLA-1
 2764, 2768, 2772, 2776, 3260, 3264, 3268, 3272
*Nset, nset=POINT4, instance=PLA-1
 61,
*Nset, nset=POINT4FAR, instance=PLA-1
 23,
*Nset, nset=POINT4PART, instance=PLA-1
   41,   61,   74,  979,  980,  981, 1236, 1237, 1238
*Elset, elset=POINT4PART, instance=PLA-1
 2041, 2045, 2049, 2053, 2732, 2736, 2740, 2744
*Nset, nset=POINT5, instance=PLA-1
 38,
*Nset, nset=POINT5FAR, instance=PLA-1
 7,
*Nset, nset=POINT5PART, instance=PLA-1
  19,  38,  58, 643, 644, 645, 964, 965, 966
*Elset, elset=POINT5PART, instance=PLA-1
 1249, 1253, 1257, 1261, 2009, 2013, 2017, 2021
*Nset, nset=POINT6, instance=PLA-1
 16,
*Nset, nset=POINT6FAR, instance=PLA-1
 4,
*Nset, nset=POINT6PART, instance=PLA-1
   2,  16,  35, 361, 362, 363, 628, 629, 630
*Elset, elset=POINT6PART, instance=PLA-1
  577,  581,  585,  589, 1217, 1221, 1225, 1229
*Nset, nset=Set-36, instance=PLA-1
 85,
*Nset, nset=Set-37, instance=PLA-1, generate
    1,  4153,     1
*Nset, nset=m_Set-24, instance=PLA-1
 12,
*Nset, nset=m_Set-26, instance=PLA-1
 25,
*Nset, nset=m_Set-28, instance=PLA-1
 44,
*Nset, nset=m_Set-30, instance=PLA-1
 23,
*Nset, nset=m_Set-32, instance=PLA-1
 7,
*Nset, nset=m_Set-34, instance=PLA-1
 4,
*Nset, nset=s_Set-24, instance=PLA-1
  11,  12,  30, 276, 277, 278, 569, 570, 571
*Nset, nset=s_Set-26, instance=PLA-1
  25,  28,  48, 563, 564, 565, 775, 776, 777
*Nset, nset=s_Set-28, instance=PLA-1
   44,   45,   65,  731,  732,  733, 1029, 1030, 1031
*Nset, nset=s_Set-30, instance=PLA-1
  23,  24,  42, 452, 453, 454, 693, 694, 695
*Nset, nset=s_Set-32, instance=PLA-1
   7,   8,  20, 200, 201, 202, 411, 412, 413
*Nset, nset=s_Set-34, instance=PLA-1
   3,   4,  14, 124, 125, 126, 317, 318, 319
*Nset, nset="_T-Datum csys-2", internal, instance=PLA-1
   25,   27,   50,   68,  819,  820,  821, 1041, 1042, 1043
*Nset, nset="_T-Datum csys-3", internal, instance=PLA-1
   44,   64,   77,   83, 1251, 1252, 1253, 1443, 1444, 1445
*Nset, nset="_T-Datum csys-4", internal, instance=PLA-1
   23,   41,   61,   74,  979,  980,  981, 1236, 1237, 1238
*Nset, nset="_T-Datum csys-5", internal, instance=PLA-1
   7,  19,  38,  58, 643, 644, 645, 964, 965, 966
*Nset, nset="_T-Datum csys-6", internal, instance=PLA-1
   2,   4,  16,  35, 361, 362, 363, 628, 629, 630
*Surface, type=NODE, name=s_Set-24_CNS_, internal
s_Set-24, 1.
*Surface, type=NODE, name=s_Set-26_CNS_, internal
s_Set-26, 1.
*Surface, type=NODE, name=s_Set-28_CNS_, internal
s_Set-28, 1.
*Surface, type=NODE, name=s_Set-30_CNS_, internal
s_Set-30, 1.
*Surface, type=NODE, name=s_Set-32_CNS_, internal
s_Set-32, 1.
*Surface, type=NODE, name=s_Set-34_CNS_, internal
s_Set-34, 1.
*Nset, nset="_T-Transform__T-Datum csys-5", internal
POINT5FAR, 
POINT5PART, 
POINT5, 
*Transform, nset="_T-Transform__T-Datum csys-5"
-0.500000002095544, -0.866025402574576,           0., 0.866025402574576, -0.500000002095544,           0.
*Nset, nset="_T-Transform__T-Datum csys-6", internal
POINT6FAR, 
POINT6PART, 
POINT6, 
*Transform, nset="_T-Transform__T-Datum csys-6"
0.4999999999997, -0.866025403784612,           0., 0.866025403784612, 0.4999999999997,           0.
*Nset, nset="_T-Transform__T-Datum csys-3", internal
POINT3FAR, 
POINT3PART, 
POINT3, 
*Transform, nset="_T-Transform__T-Datum csys-3"
-0.499999999999695, 0.866025403784615,           0., -0.866025403784615, -0.499999999999695,           0.
*Nset, nset="_T-Transform__T-Datum csys-4", internal
POINT4FAR, 
POINT4PART, 
POINT4, 
*Transform, nset="_T-Transform__T-Datum csys-4"
         -1.,           0.,           0.,           0.,          -1.,           0.
*Nset, nset="_T-Transform__T-Datum csys-2", internal
POINT2FAR, 
POINT2PART, 
POINT2, 
*Transform, nset="_T-Transform__T-Datum csys-2"
0.499999984767044, 0.86602541257919,           0., -0.86602541257919, 0.499999984767044,           0.
** Constraint: Constraint-22
*Coupling, constraint name=Constraint-22, ref node=m_Set-24, surface=s_Set-24_CNS_
*Kinematic
** Constraint: Constraint-23
*Coupling, constraint name=Constraint-23, ref node=m_Set-26, surface=s_Set-26_CNS_
*Kinematic
** Constraint: Constraint-24
*Coupling, constraint name=Constraint-24, ref node=m_Set-28, surface=s_Set-28_CNS_
*Kinematic
** Constraint: Constraint-25
*Coupling, constraint name=Constraint-25, ref node=m_Set-30, surface=s_Set-30_CNS_
*Kinematic
** Constraint: Constraint-26
*Coupling, constraint name=Constraint-26, ref node=m_Set-32, surface=s_Set-32_CNS_
*Kinematic
** Constraint: Constraint-27
*Coupling, constraint name=Constraint-27, ref node=m_Set-34, surface=s_Set-34_CNS_
*Kinematic
** Constraint: Eqn-1
*Equation
2
POINT5FAR, 2, 1.
POINT1FAR, 2, -1.
** Constraint: Eqn-2
*Equation
2
POINT5PART, 2, 1.
POINT1, 2, -1.
** Constraint: Eqn-3
*Equation
2
POINT6FAR, 2, 1.
POINT1FAR, 2, -1.
** Constraint: Eqn-4
*Equation
2
POINT6PART, 2, 1.
POINT1, 2, -1.
** Constraint: Eqn-5
*Equation
2
POINT4FAR, 2, 1.
POINT1FAR, 2, -1.
** Constraint: Eqn-6
*Equation
2
POINT4PART, 2, 1.
POINT1, 2, -1.
** Constraint: Eqn-7
*Equation
2
POINT3FAR, 2, 1.
POINT1FAR, 2, -1.
** Constraint: Eqn-8
*Equation
2
POINT3PART, 2, 1.
POINT1, 2, -1.
** Constraint: Eqn-9
*Equation
2
POINT2FAR, 2, 1.
POINT1FAR, 2, -1.
** Constraint: Eqn-10
*Equation
2
POINT2PART, 2, 1.
POINT1, 2, -1.
** Constraint: Eqn-11
*Equation
2
POINT1PART, 2, 1.
POINT1, 2, -1.
** Constraint: Eqn-12
*Equation
2
POINT5FAR, 1, 1.
POINT1FAR, 1, -1.
** Constraint: Eqn-13
*Equation
2
POINT5, 1, 1.
POINT1, 1, -1.
** Constraint: Eqn-14
*Equation
2
POINT6FAR, 1, 1.
POINT1FAR, 1, -1.
** Constraint: Eqn-15
*Equation
2
POINT6, 1, 1.
POINT1, 1, -1.
** Constraint: Eqn-16
*Equation
2
POINT4FAR, 1, 1.
POINT1FAR, 1, -1.
** Constraint: Eqn-17
*Equation
2
POINT4, 1, 1.
POINT1, 1, -1.
** Constraint: Eqn-18
*Equation
2
POINT3FAR, 1, 1.
POINT1FAR, 1, -1.
** Constraint: Eqn-19
*Equation
2
POINT3, 1, 1.
POINT1, 1, -1.
** Constraint: Eqn-20
*Equation
2
POINT2FAR, 1, 1.
POINT1FAR, 1, -1.
** Constraint: Eqn-21
*Equation
2
POINT2, 1, 1.
POINT1, 1, -1.
*End Assembly
** 
** MATERIALS
** 
*Material, name=PLA
*Elastic, moduli=INSTANTANEOUS
1649., 0.32
*Viscoelastic, time=PRONY
    0.182941,      0., 0.00048
    0.393863,      0.,  0.0048
    0.373335,      0.,   0.048
   0.0355913,      0.,    0.48
  0.00822923,      0.,     4.8
  0.00309885,      0.,     48.
 0.000915706,      0.,    480.
 0.000800485,      0.,   4800.
 0.000394178,      0.,  48000.
 0.000200121,      0., 480000.
*Trs
 60.12,   548.8, 2434.99
** 
** BOUNDARY CONDITIONS
** 
** Name: MIDDLE Type: Displacement/Rotation
*Boundary
Set-36, 1, 1
Set-36, 2, 2
** Name: POINT1 Type: Displacement/Rotation
*Boundary
POINT1, 1, 1
POINT1, 2, 2
** Name: POINT1FAR Type: Displacement/Rotation
*Boundary
POINT1FAR, 1, 1
POINT1FAR, 2, 2
** 
** PREDEFINED FIELDS
** 
** Name: Predefined Field-1   Type: Temperature
*Initial Conditions, type=TEMPERATURE
Set-37, 80.
** ----------------------------------------------------------------
** 
** STEP: ASSEMBLE
** 
*Step, name=ASSEMBLE, nlgeom=YES
*Visco
1., 100., 
** 
** BOUNDARY CONDITIONS
** 
** Name: POINT1 Type: Displacement/Rotation
*Boundary
POINT1, 1, 1, 0.0235
POINT1, 2, 2, 1.88
** Name: POINT1FAR Type: Displacement/Rotation
*Boundary
POINT1FAR, 1, 1, 0.047
** 
** OUTPUT REQUESTS
** 
*Restart, write, frequency=0
** 
** FIELD OUTPUT: F-Output-1
** 
*Output, field, variable=PRESELECT
** 
** HISTORY OUTPUT: H-Output-1
** 
*Output, history
*Energy Output
ALLSE, 
** 
** HISTORY OUTPUT: H-Output-2
** 
*Node Output, nset=POINT1
U1, U2
** 
** HISTORY OUTPUT: H-Output-3
** 
*Output, history, variable=PRESELECT
*End Step
