*Heading
** Job name: SquareMode1PLA_HT_PATTERN Model name: SquareMode1PLA_HT_PATTERN
** Generated by: Abaqus/CAE 2017
*Preprint, echo=NO, model=NO, history=NO, contact=NO
**
** PARTS
**
*Part, name=PLA
*Node
      1,    16.449789,    9.0262537
      2,     15.44979,    9.0262537
      3,     15.44979,    8.0262537
      4,    16.449789,    8.0262537
      5,  -2.58521056,   27.0612545
      6,  -2.58521056,   28.0612545
      7,  -3.58521056,   28.0612545
      8,  -3.58521056,   27.0612545
      9,   35.4847908,   28.0612545
     10,   35.4847908,   27.0612545
     11,   36.4847908,   27.0612545
     12,   36.4847908,   28.0612545
     13,    17.449789,    9.0262537
     14,    17.449789,    8.0262537
     15,    16.449789,   27.0612545
     16,     15.44979,   27.0612545
     17,     15.44979,   28.0612545
     18,  -2.58521056,   29.0612545
     19,  -3.58521056,   29.0612545
     20,    16.449789,   47.0962524
** ... 2797 like lines cut
*Element, type=CPE4
   1,    1,   34, 1006,   45
   2,   34,   35, 1007, 1006
   3,   35,   36, 1008, 1007
   4,   36,    2,   37, 1008
   5,   45, 1006, 1009,   44
   6, 1006, 1007, 1010, 1009
   7, 1007, 1008, 1011, 1010
   8, 1008,   37,   38, 1011
   9,   44, 1009, 1012,   43
  10, 1009, 1010, 1013, 1012
  11, 1010, 1011, 1014, 1013
  12, 1011,   38,   39, 1014
  13,   43, 1012,   42,    4
  14, 1012, 1013,   41,   42
  15, 1013, 1014,   40,   41
  16, 1014,   39,    3,   40
  17,    5,   46, 1015,   57
  18,   46,   47, 1016, 1015
  19,   47,   48, 1017, 1016
  20,   48,    6,   49, 1017
** ... 2476 like lines cut
*Nset, nset=SET-2, generate
    1,  2817,     1
*Elset, elset=SET-2, generate
    1,  2496,     1
** Section: Section-1-SET-2
*Solid Section, elset=SET-2, material=PLA
2.,
*End Part
**  
**
** ASSEMBLY
**
*Assembly, name=Assembly
**  
*Instance, name=PLA-1, part=PLA
   -16.44979,   -28.061254,           0.
*End Instance
**  
*Nset, nset=BOTTOM, instance=PLA-1
 14,
*Nset, nset=BOTTOMLINE, instance=PLA-1
  3,  4, 40, 41, 42, 73, 74, 75
*Nset, nset=BOTTOMPART, instance=PLA-1
 13, 76, 77, 78
*Nset, nset=LEFT, instance=PLA-1
 8,
*Nset, nset=LEFTLINE, instance=PLA-1
   7,  19,  52,  53,  54, 375, 376, 377
*Nset, nset=LEFTPART, instance=PLA-1
  5, 55, 56, 57
*Nset, nset=RIGHT, instance=PLA-1
 25,
*Nset, nset=RIGHTLINE, instance=PLA-1
  11,  12,  64,  65,  66, 393, 394, 395
*Nset, nset=RIGHTPART, instance=PLA-1
  24, 396, 397, 398
*Nset, nset=SET-13, instance=PLA-1
 28,
*Nset, nset=TOP, instance=PLA-1
 22,
*Nset, nset=TOPLINE, instance=PLA-1
  21,  32, 381, 382, 383, 849, 850, 851
*Nset, nset=TOPPART, instance=PLA-1
  23, 384, 385, 386
** Constraint: Eqn-1
*Equation
2
TOPLINE, 2, 1.
TOP, 2, -1.
** Constraint: Eqn-2
*Equation
2
LEFT, 2, 1.
RIGHT, 2, 1.
** Constraint: Eqn-3
*Equation
2
RIGHTPART, 2, 1.
RIGHT, 2, -1.
** Constraint: Eqn-4
*Equation
2
BOTTOM, 2, 1.
RIGHT, 1, 1.
** Constraint: Eqn-5
*Equation
2
TOP, 2, 1.
RIGHT, 1, -1.
** Constraint: Eqn-6
*Equation
2
LEFTPART, 2, 1.
LEFT, 2, -1.
** Constraint: Eqn-7
*Equation
2
BOTTOMLINE, 2, 1.
BOTTOM, 2, -1.
** Constraint: Eqn-8
*Equation
2
TOPPART, 1, 1.
TOP, 1, -1.
** Constraint: Eqn-9
*Equation
2
TOP, 1, 1.
RIGHT, 2, 1.
** Constraint: Eqn-10
*Equation
2
BOTTOM, 1, 1.
RIGHT, 2, -1.
** Constraint: Eqn-11
*Equation
2
LEFT, 1, 1.
RIGHT, 1, 1.
** Constraint: Eqn-12
*Equation
2
RIGHTLINE, 1, 1.
RIGHT, 1, -1.
** Constraint: Eqn-13
*Equation
2
LEFTLINE, 1, 1.
LEFT, 1, -1.
** Constraint: Eqn-14
*Equation
2
BOTTOMPART, 1, 1.
BOTTOM, 1, -1.
*End Assembly
** 
** MATERIALS
** 
*Material, name=PLA
*Elastic, moduli=INSTANTANEOUS
1649., 0.32
*Viscoelastic, time=PRONY
    0.182941,      0., 0.00048
    0.393863,      0.,  0.0048
    0.373335,      0.,   0.048
   0.0355913,      0.,    0.48
  0.00822923,      0.,     4.8
  0.00309885,      0.,     48.
 0.000915706,      0.,    480.
 0.000800485,      0.,   4800.
 0.000394178,      0.,  48000.
 0.000200121,      0., 480000.
*Trs
 60.12,   548.8, 2434.99
** 
** BOUNDARY CONDITIONS
** 
** Name: Disp-BC-1 Type: Displacement/Rotation
*Boundary
SET-13, 1, 1
** Name: Disp-BC-2 Type: Displacement/Rotation
*Boundary
SET-13, 2, 2
** Name: Disp-BC-3 Type: Displacement/Rotation
*Boundary
RIGHT, 1, 1
** Name: Disp-BC-4 Type: Displacement/Rotation
*Boundary
RIGHT, 2, 2
** 
** PREDEFINED FIELDS
** 
** Name: Field-1   Type: Temperature
*Initial Conditions, type=TEMPERATURE
PLA-1.SET-2, 80.
** ----------------------------------------------------------------
** 
** STEP: Step-1
** 
*Step, name=Step-1, nlgeom=YES
*Visco
1., 100., 
** 
** BOUNDARY CONDITIONS
** 
** Name: Disp-BC-1 Type: Displacement/Rotation
*Boundary, op=NEW
SET-13, 1, 1
** Name: Disp-BC-2 Type: Displacement/Rotation
*Boundary, op=NEW
SET-13, 2, 2
** Name: Disp-BC-3 Type: Displacement/Rotation
*Boundary, op=NEW
** Name: Disp-BC-4 Type: Displacement/Rotation
*Boundary, op=NEW
** Name: Disp-BC-5 Type: Displacement/Rotation
*Boundary, op=NEW
RIGHT, 1, 1, -0.0644
** Name: Disp-BC-6 Type: Displacement/Rotation
*Boundary, op=NEW
RIGHT, 2, 2, -2.76
** 
** OUTPUT REQUESTS
** 
*Restart, write, frequency=0
** 
** FIELD OUTPUT: F-Output-1
** 
*Output, field, variable=PRESELECT
** 
** HISTORY OUTPUT: H-Output-2
** 
*Output, history
*Energy Output
ALLIE, ALLSE, ALLVD
** 
** HISTORY OUTPUT: H-Output-3
** 
*Node Output, nset=RIGHT
U1, U2
** 
** HISTORY OUTPUT: H-Output-1
** 
*Output, history, variable=PRESELECT
*End Step
