*Heading
** Job name: SquareMode1TPU_HT Model name: SquareMode1TPU1_HT
** Generated by: Abaqus/CAE 2017
*Preprint, echo=NO, model=NO, history=NO, contact=NO
**
** PARTS
**
*Part, name=TPU
*Node
      1,   25.3365631,   9.33759403
      2,   26.8390446,   24.3624077
      3,   25.8440075,   24.4619122
      4,   24.3288879,   9.31071186
      5,   28.5405331,   41.3772964
      6,   27.0380516,   26.3524818
      7,   28.0330906,   26.2529793
      8,   29.5482101,   41.4041786
      9,   42.9584007,   23.7554607
     10,   27.9335861,   25.2579422
     11,   27.8340816,   24.2629051
     12,   42.9852829,   22.7477837
     13,    26.938549,   25.3574448
     14,   26.0430145,   26.4519863
     15,    25.943512,   25.4569492
     16,   10.9186974,   26.9594307
     17,   10.6928072,   25.9770317
     18,   26.3189621,   9.11170387
     19,   10.8918152,   27.9671059
     20,   43.1842918,   24.7378578
** ... 2909 like lines cut
*Element, type=CPE4
  1,    1,   50, 1154,  173
  2,   50,   51, 1155, 1154
  3,   51,   52, 1156, 1155
  4,   52,   53, 1157, 1156
  5,   53,   54, 1158, 1157
  6,   54,   55, 1159, 1158
  7,   55,   56, 1160, 1159
  8,   56,   57, 1161, 1160
  9,   57,   58, 1162, 1161
 10,   58,   59, 1163, 1162
 11,   59,   60, 1164, 1163
 12,   60,   61, 1165, 1164
 13,   61,   62, 1166, 1165
 14,   62,   63, 1167, 1166
 15,   63,   64, 1168, 1167
 16,   64,   65, 1169, 1168
 17,   65,   66, 1170, 1169
 18,   66,   67, 1171, 1170
 19,   67,   68, 1172, 1171
 20,   68,   69, 1173, 1172
** ... 1880 like lines cut
*Element, type=CPE3
1901,   12, 1018, 2418
1902, 2418,  420,   12
1903, 1018, 1019, 2419
1904, 2419, 2418, 1018
1905, 1019, 1020, 2420
1906, 2420, 2419, 1019
1907, 1020, 1021, 2421
1908, 2421, 2420, 1020
1909, 1021, 1022, 2422
1910, 2422, 2421, 1021
1911, 1022, 1023, 2423
1912, 2423, 2422, 1022
1913, 1023, 1024, 2424
1914, 2424, 2423, 1023
1915, 1024, 1025, 2425
1916, 2425, 2424, 1024
1917, 1025,   46, 1026
1918, 1026, 2425, 1025
1919,  420, 2418, 2426
1920, 2426,  421,  420
** ... 1204 like lines cut
*Nset, nset=Set-1, generate
    1,  2929,     1
*Elset, elset=Set-1, generate
    1,  3124,     1
** Section: TPU
*Solid Section, elset=Set-1, material=TPU
5.,
*End Part
**  
**
** ASSEMBLY
**
*Assembly, name=Assembly
**  
*Instance, name=TPU-1, part=TPU
  -26.938549,   -25.357445,           0.
*End Instance
**  
*Nset, nset=Set-1, instance=TPU-1
 13,
*Nset, nset=Set-2, instance=TPU-1
  22,  23, 810, 811, 812
*Elset, elset=Set-2, instance=TPU-1, generate
 1492,  1495,     1
*Nset, nset=Set-3, instance=TPU-1
  40,  41, 966, 967, 968
*Elset, elset=Set-3, instance=TPU-1, generate
 1792,  1795,     1
*Nset, nset=Set-4, instance=TPU-1
  34,  35, 914, 915, 916
*Elset, elset=Set-4, instance=TPU-1, generate
 1692,  1695,     1
*Nset, nset=Set-5, instance=TPU-1
  28,  29, 862, 863, 864
*Elset, elset=Set-5, instance=TPU-1, generate
 1592,  1595,     1
*Nset, nset=Set-6, instance=TPU-1, generate
    1,  2929,     1
*Elset, elset=Set-6, instance=TPU-1, generate
    1,  3124,     1
*Nset, nset=bottom, instance=TPU-1
 29,
*Nset, nset=bottomline, instance=TPU-1
  30, 865, 866, 867, 868, 869, 870, 871, 872, 873, 874, 875, 876, 877, 878, 879
 880, 881, 882, 883, 884, 885, 886, 887, 888
*Nset, nset=bottompart, instance=TPU-1
  28, 862, 863, 864
*Nset, nset=left, instance=TPU-1
 35,
*Nset, nset=leftline, instance=TPU-1
  36, 917, 918, 919, 920, 921, 922, 923, 924, 925, 926, 927, 928, 929, 930, 931
 932, 933, 934, 935, 936, 937, 938, 939, 940
*Nset, nset=leftpart, instance=TPU-1
  34, 914, 915, 916
*Nset, nset=right, instance=TPU-1
 23,
*Nset, nset=rightline, instance=TPU-1
  24, 813, 814, 815, 816, 817, 818, 819, 820, 821, 822, 823, 824, 825, 826, 827
 828, 829, 830, 831, 832, 833, 834, 835, 836
*Nset, nset=rightpart, instance=TPU-1
  22, 810, 811, 812
*Nset, nset=top, instance=TPU-1
 41,
*Nset, nset=topline, instance=TPU-1
  42, 969, 970, 971, 972, 973, 974, 975, 976, 977, 978, 979, 980, 981, 982, 983
 984, 985, 986, 987, 988, 989, 990, 991, 992
*Nset, nset=toppart, instance=TPU-1
  40, 966, 967, 968
** Constraint: Constraint-1
*Equation
2
bottomline, 2, 1.
bottom, 2, -1.
** Constraint: Constraint-2
*Equation
2
leftline, 1, 1.
left, 1, -1.
** Constraint: Constraint-3
*Equation
2
rightline, 1, 1.
right, 1, -1.
** Constraint: Constraint-4
*Equation
2
topline, 2, 1.
top, 2, -1.
** Constraint: Constraint-5
*Equation
2
bottompart, 1, 1.
bottom, 1, -1.
** Constraint: Constraint-6
*Equation
2
leftpart, 2, 1.
left, 2, -1.
** Constraint: Constraint-7
*Equation
2
rightpart, 2, 1.
right, 2, -1.
** Constraint: Constraint-8
*Equation
2
toppart, 2, 1.
top, 2, -1.
** Constraint: Constraint-9
*Equation
2
left, 1, 1.
right, 1, 1.
** Constraint: Constraint-10
*Equation
2
left, 2, 1.
right, 2, 1.
** Constraint: Constraint-11
*Equation
2
top, 2, 1.
right, 1, -1.
** Constraint: Constraint-12
*Equation
2
top, 1, 1.
right, 2, 1.
** Constraint: Constraint-13
*Equation
2
bottom, 2, 1.
right, 1, 1.
** Constraint: Constraint-14
*Equation
2
bottom, 1, -1.
right, 2, 1.
*End Assembly
** 
** MATERIALS
** 
*Material, name=TPU
*Elastic
 95.4141,   0.32, 18.017
 95.0917,   0.32,  18.14
 94.6418,   0.32, 18.301
 94.1044,   0.32, 18.478
 93.5199,   0.32, 18.639
 93.0493,   0.32, 18.786
 92.6903,   0.32, 18.913
 92.3012,   0.32, 19.015
 91.6654,   0.32, 19.173
 91.2036,   0.32, 19.327
 90.6791,   0.32, 19.523
 90.2388,   0.32, 19.699
 89.8706,   0.32,  19.85
 89.3535,   0.32, 19.985
 88.9383,   0.32, 20.109
 88.5272,   0.32, 20.234
 87.9949,   0.32, 20.434
 87.6281,   0.32, 20.573
 87.1839,   0.32, 20.717
 86.6956,   0.32, 20.852
** ... 407 like lines cut
** 
** BOUNDARY CONDITIONS
** 
** Name: middle Type: Displacement/Rotation
*Boundary
Set-1, 1, 1
Set-1, 2, 2
** Name: right Type: Displacement/Rotation
*Boundary
right, 1, 1
right, 2, 2
** 
** PREDEFINED FIELDS
** 
** Name: Predefined Field-1   Type: Temperature
*Initial Conditions, type=TEMPERATURE
Set-6, 80.
** ----------------------------------------------------------------
** 
** STEP: assemble
** 
*Step, name=assemble, nlgeom=YES
*Static, direct
0.01, 1., 
** 
** BOUNDARY CONDITIONS
** 
** Name: right Type: Displacement/Rotation
*Boundary
right, 1, 1, 0.07
right, 2, 2, 3.
** 
** OUTPUT REQUESTS
** 
*Restart, write, frequency=1
** 
** FIELD OUTPUT: F-Output-1
** 
*Output, field, variable=PRESELECT
** 
** HISTORY OUTPUT: H-Output-4
** 
*Output, history
*Energy Output
ALLSE, 
** 
** HISTORY OUTPUT: H-Output-2
** 
*Node Output, nset=right
RF1, RF2, U1, U2
** 
** HISTORY OUTPUT: H-Output-1
** 
*Output, history, variable=PRESELECT
*End Step
