*Heading
** Job name: HexagonalMode2TPU_HT_PATTERN Model name: HexagonalMode2TPU_HT_PATTERN
** Generated by: Abaqus/CAE 2017
*Preprint, echo=NO, model=NO, history=NO, contact=NO
**
** PARTS
**
*Part, name=TPU
*Node
      1,   8.16473198,   30.2096462
      2,   12.4948587,   32.7096481
      3,   9.16473198,   31.9416981
      4,   11.0188341,   33.0121651
      5,   11.9948587,   33.5756721
      6,   7.66473198,   31.0756721
      7,   24.0307579,   23.0493927
      8,   24.0307579,   18.0493927
      9,   25.0307579,   21.3173428
     10,   25.0307579,   19.1764088
     11,   25.0307579,   18.0493927
     12,   25.0307579,   23.0493927
     13,   9.89678288,   12.8891392
     14,   5.56665611,   15.3891392
     15,   7.89678288,   12.8891392
     16,   6.04268074,   13.9596052
     17,   5.06665611,   14.5231133
     18,   9.39678288,   12.0231133
     19,   13.6937628,   22.5181866
     20,   14.5057392,   23.1018791
** ... 2600 like lines cut
*Element, type=CPE4
 1,    1,   71,  947,  114
 2,   71,   72,  948,  947
 3,   72,   73,  949,  948
 4,   73,   74,  950,  949
 5,   74,   75,  951,  950
 6,   75,   76,  952,  951
 7,   76,   77,  953,  952
 8,   77,   78,  954,  953
 9,   78,   79,  955,  954
10,   79,   80,  956,  955
11,   80,   81,  957,  956
12,   81,   82,  958,  957
13,   82,   83,  959,  958
14,   83,   84,  960,  959
15,   84,   85,  961,  960
16,   85,   86,  962,  961
17,   86,   87,  963,  962
18,   87,   88,  964,  963
19,   88,   89,  965,  964
20,   89,   90,  966,  965
** ... 1330 like lines cut
*Element, type=CPE3
1351, 1847,  732,   19
1352,  391,   31,  728
1353,  729,  392,  391
1354,  731,   64,  732
1355, 1847,  731,  732
1356,  729,  730,  392
1357,  728,  729,  391
1358, 1847,   19,  392
1359, 1847,  392,  730
1360, 1847,  730,  731
1361, 1848,  730,  366
1362, 1848,   28,  733
1363, 1848,  731,  730
1364,  731,  733,   64
1365,  729,  366,  730
1366,  366,  729,  367
1367,  729,  728,  367
1368,  728,   31,  367
1369, 1848,  366,   28
1370, 1848,  733,  731
** ... 1876 like lines cut
*Nset, nset=Set-1, generate
    1,  2620,     1
*Elset, elset=Set-1, generate
    1,  3246,     1
** Section: TPU
*Solid Section, elset=Set-1, material=TPU
5.,
*End Part
**  
**
** ASSEMBLY
**
*Assembly, name=Assembly
**  
*Instance, name=TPU-1, part=TPU
  -14.030758,   -22.049393,           0.
*End Instance
**  
*Nset, nset=Set-11, instance=TPU-1
 43,
*Nset, nset=Set-12, instance=TPU-1
 7,
*Nset, nset=Set-13, instance=TPU-1
 64,
*Nset, nset=Set-17, instance=TPU-1, generate
    1,  2620,     1
*Elset, elset=Set-17, instance=TPU-1, generate
    1,  3246,     1
*Nset, nset=m_Set-14, instance=TPU-1
 43,
*Nset, nset=m_Set-15, instance=TPU-1
 35,
*Nset, nset=m_Set-16, instance=TPU-1
 38,
*Nset, nset=middle, instance=TPU-1
 64,
*Nset, nset=point1, instance=TPU-1
 7,
*Nset, nset=point1far, instance=TPU-1
 43,
*Nset, nset=point1part, instance=TPU-1
  12,  62, 156, 157, 158, 704, 705, 706
*Nset, nset=point2, instance=TPU-1
 1,
*Nset, nset=point2far, instance=TPU-1
 35,
*Nset, nset=point2part, instance=TPU-1
   1,   6,  58, 112, 113, 114, 680, 681, 682
*Elset, elset=point2part, instance=TPU-1
    1,   22,   43,   64, 1203, 1224, 1245, 1266
*Nset, nset=point3, instance=TPU-1
 13,
*Nset, nset=point3far, instance=TPU-1
 38,
*Nset, nset=point3part, instance=TPU-1
  13,  18,  54, 200, 201, 202, 656, 657, 658
*Elset, elset=point3part, instance=TPU-1
  169,  190,  211,  232, 1119, 1140, 1161, 1182
*Elset, elset=_s_Surf-1_S2, internal, instance=TPU-1, generate
 823,  873,   25
*Elset, elset=_s_Surf-1_S4, internal, instance=TPU-1, generate
 874,  924,   25
*Surface, type=ELEMENT, name=s_Surf-1
_s_Surf-1_S2, S2
_s_Surf-1_S4, S4
*Elset, elset=_s_Surf-2_S2, internal, instance=TPU-1, generate
 673,  723,   25
*Elset, elset=_s_Surf-2_S4, internal, instance=TPU-1, generate
 949,  999,   25
*Surface, type=ELEMENT, name=s_Surf-2
_s_Surf-2_S2, S2
_s_Surf-2_S4, S4
*Elset, elset=_s_Surf-3_S4, internal, instance=TPU-1, generate
 724,  774,   25
*Elset, elset=_s_Surf-3_S2, internal, instance=TPU-1, generate
 1048,  1098,    25
*Surface, type=ELEMENT, name=s_Surf-3
_s_Surf-3_S4, S4
_s_Surf-3_S2, S2
*Nset, nset="_T-Datum csys-2", internal
point2far, 
point2, 
point2part, 
*Transform, nset="_T-Datum csys-2"
-0.499999776159643, 0.866025533018691,           0., 0.866025533018691, 0.499999776159643,           0.
*Nset, nset="_T-Datum csys-3", internal
point3far, 
point3, 
point3part, 
*Transform, nset="_T-Datum csys-3"
-0.499999882549819, -0.866025471594322,           0., -0.866025471594322, 0.499999882549819,           0.
** Constraint: couplingpoint1
*Coupling, constraint name=couplingpoint1, ref node=m_Set-14, surface=s_Surf-1
*Kinematic
** Constraint: couplingpoint2
*Coupling, constraint name=couplingpoint2, ref node=m_Set-15, surface=s_Surf-2
*Kinematic
** Constraint: couplingpoint3
*Coupling, constraint name=couplingpoint3, ref node=m_Set-16, surface=s_Surf-3
*Kinematic
** Constraint: farpoint12x
*Equation
2
point2far, 1, 1.
point1far, 1, -1.
** Constraint: farpoint12y
*Equation
2
point2far, 2, 1.
point1far, 2, 1.
** Constraint: farpoint13x
*Equation
2
point3far, 1, 1.
point1far, 1, -1.
** Constraint: farpoint13y
*Equation
2
point3far, 2, 1.
point1far, 2, 1.
** Constraint: point1
*Equation
2
point1part, 2, 1.
point1, 2, -1.
** Constraint: point2
*Equation
2
point2, 1, 1.
point1, 1, -1.
** Constraint: point3
*Equation
2
point3, 1, 1.
point1, 1, -1.
** Constraint: point12
*Equation
2
point2part, 2, 1.
point1, 2, 1.
** Constraint: point13
*Equation
2
point3part, 2, 1.
point1, 2, 1.
*End Assembly
** 
** MATERIALS
** 
*Material, name=TPU
*Elastic
 95.4141,   0.32, 18.017
 95.0917,   0.32,  18.14
 94.6418,   0.32, 18.301
 94.1044,   0.32, 18.478
 93.5199,   0.32, 18.639
 93.0493,   0.32, 18.786
 92.6903,   0.32, 18.913
 92.3012,   0.32, 19.015
 91.6654,   0.32, 19.173
 91.2036,   0.32, 19.327
 90.6791,   0.32, 19.523
 90.2388,   0.32, 19.699
 89.8706,   0.32,  19.85
 89.3535,   0.32, 19.985
 88.9383,   0.32, 20.109
 88.5272,   0.32, 20.234
 87.9949,   0.32, 20.434
 87.6281,   0.32, 20.573
 87.1839,   0.32, 20.717
 86.6956,   0.32, 20.852
** ... 407 like lines cut
** 
** BOUNDARY CONDITIONS
** 
** Name: farpoint1 Type: Displacement/Rotation
*Boundary
Set-11, 1, 1
Set-11, 2, 2
** Name: middle Type: Displacement/Rotation
*Boundary
Set-13, 1, 1
Set-13, 2, 2
** Name: point1 Type: Displacement/Rotation
*Boundary
Set-12, 1, 1
Set-12, 2, 2
** 
** PREDEFINED FIELDS
** 
** Name: Predefined Field-1   Type: Temperature
*Initial Conditions, type=TEMPERATURE
Set-17, 80.
** ----------------------------------------------------------------
** 
** STEP: assemble
** 
*Step, name=assemble, nlgeom=YES
*Static, direct
0.01, 1., 
** 
** BOUNDARY CONDITIONS
** 
** Name: farpoint1 Type: Displacement/Rotation
*Boundary
Set-11, 1, 1, -0.003
** Name: point1 Type: Displacement/Rotation
*Boundary
Set-12, 1, 1, -0.0015
Set-12, 2, 2, -0.12
** 
** OUTPUT REQUESTS
** 
*Restart, write, frequency=0
** 
** FIELD OUTPUT: F-Output-1
** 
*Output, field, variable=PRESELECT
** 
** HISTORY OUTPUT: H-Output-3
** 
*Output, history
*Energy Output
ALLSE, 
** 
** HISTORY OUTPUT: H-Output-2
** 
*Node Output, nset=point1
U1, U2
** 
** HISTORY OUTPUT: H-Output-1
** 
*Output, history, variable=PRESELECT
*End Step
