*Heading
** Job name: HexagonalMode2PLA_HT Model name: HexagonalMode2PLA_HT
** Generated by: Abaqus/CAE 2017
*Preprint, echo=NO, model=NO, history=NO, contact=NO
**
** PARTS
**
*Part, name=PLA
*Node
      1,  -6.67850447,   21.5804329
      2,  -2.19100451,   13.8078547
      3,  -1.32497919,   14.3078547
      4,  -5.81247902,   22.0804329
      5,  -3.05702996,   13.3078547
      6,  -7.54452991,   21.0804329
      7,  -1.69100451,   12.9418297
      8, -0.824979126,   13.4418297
      9,   14.2714958,   5.30322647
     10,   14.2714958,   4.30322647
     11,   23.2464962,   4.30322647
     12,   23.2464962,   5.30322647
     13,  -2.19100451,  -5.20140266
     14,  -3.05702996,  -4.70140266
     15,  -7.54452991,  -12.4739809
     16,  -6.67850447,  -12.9739809
     17,  -2.55702996,   12.4418297
     18,  -1.19100451,   12.0758047
     19, -0.324979126,   12.5758047
     20,   13.2714958,   5.30322647
** ... 2132 like lines cut
*Element, type=CPE4
   1,    1,   44,  815,  119
   2,   44,   45,  816,  815
   3,   45,   46,  817,  816
   4,   46,   47,  818,  817
   5,   47,   48,  819,  818
   6,   48,   49,  820,  819
   7,   49,   50,  821,  820
   8,   50,   51,  822,  821
   9,   51,   52,  823,  822
  10,   52,   53,  824,  823
  11,   53,   54,  825,  824
  12,   54,   55,  826,  825
  13,   55,   56,  827,  826
  14,   56,   57,  828,  827
  15,   57,   58,  829,  828
  16,   58,   59,  830,  829
  17,   59,   60,  831,  830
  18,   60,   61,  832,  831
  19,   61,   62,  833,  832
  20,   62,   63,  834,  833
** ... 1852 like lines cut
*Element, type=CPE3
1873, 2147,  804,  800
1874,  803,   30,  478
1875,  478,  802,  803
1876,  477,  801,  802
1877, 2147,  801,  477
1878,  478,  477,  802
1879, 2147,  477,  476
1880, 2147,   29,  804
1881,  804,   43,  800
1882, 2147,  800,  801
1883, 2147,  476,   29
1884, 2148,  804,  577
1885,  804,   29,  577
1886, 2148,  576,  806
1887,  806,  576,  575
1888,  575,   37,  805
1889,  808,   43,  804
1890, 2148,  807,  808
1891, 2148,  806,  807
1892,  805,  806,  575
** ... 46 like lines cut
*Nset, nset=SET-1, generate
    1,  2152,     1
*Elset, elset=SET-1, generate
    1,  1938,     1
** Section: Section-1-SET-1
*Solid Section, elset=SET-1, material=PLA
2.,
*End Part
**  
**
** ASSEMBLY
**
*Assembly, name=Assembly
**  
*Instance, name=PLA-1, part=PLA
   -3.296495,    -4.303226,           0.
*End Instance
**  
*Nset, nset=MIDDLE, instance=PLA-1
 43,
*Nset, nset=POINT1, instance=PLA-1
 33,
*Nset, nset=POINT1FAR, instance=PLA-1
 11,
*Nset, nset=POINT1PART, instance=PLA-1
  22,  39, 524, 525, 526, 650, 651, 652
*Nset, nset=POINT2, instance=PLA-1
 8,
*Nset, nset=POINT2FAR, instance=PLA-1
 1,
*Nset, nset=POINT2PART, instance=PLA-1
   3,   8,  19, 167, 168, 169, 331, 332, 333
*Elset, elset=POINT2PART, instance=PLA-1
 289, 293, 297, 301, 612, 616, 620, 624
*Nset, nset=POINT3, instance=PLA-1
 27,
*Nset, nset=POINT3FAR, instance=PLA-1
 16,
*Nset, nset=POINT3PART, instance=PLA-1
  14,  27,  36, 434, 435, 436, 539, 540, 541
*Elset, elset=POINT3PART, instance=PLA-1
  929,  933,  937,  941, 1145, 1149, 1153, 1157
*Nset, nset=Set-19, instance=PLA-1, generate
    1,  2152,     1
*Nset, nset=m_Set-13, instance=PLA-1
 11,
*Nset, nset=m_Set-15, instance=PLA-1
 1,
*Nset, nset=m_Set-17, instance=PLA-1
 16,
*Nset, nset=s_Set-13, instance=PLA-1
  11,  12,  23, 208, 209, 210, 384, 385, 386
*Nset, nset=s_Set-15, instance=PLA-1
   1,   4,   6, 117, 118, 119, 123, 124, 125
*Nset, nset=s_Set-17, instance=PLA-1
  15,  16,  25, 284, 285, 286, 390, 391, 392
*Nset, nset="_T-Datum csys-2", internal, instance=PLA-1
   1,   3,   8,  19, 167, 168, 169, 331, 332, 333
*Nset, nset="_T-Datum csys-3", internal, instance=PLA-1
  14,  16,  27,  36, 434, 435, 436, 539, 540, 541
*Surface, type=NODE, name=s_Set-13_CNS_, internal
s_Set-13, 1.
*Surface, type=NODE, name=s_Set-15_CNS_, internal
s_Set-15, 1.
*Surface, type=NODE, name=s_Set-17_CNS_, internal
s_Set-17, 1.
*Nset, nset="_T-Transform__T-Datum csys-3", internal
POINT3FAR, 
POINT3PART, 
POINT3, 
*Transform, nset="_T-Transform__T-Datum csys-3"
-0.500000347452073, -0.866025203182798,           0., 0.866025203182798, -0.500000347452073,           0.
*Nset, nset="_T-Transform__T-Datum csys-2", internal
POINT2FAR, 
POINT2PART, 
POINT2, 
*Transform, nset="_T-Transform__T-Datum csys-2"
-0.500000337702415, 0.866025208811771,           0., 0.866025208811771, 0.500000337702415,           0.
** Constraint: Constraint-10
*Coupling, constraint name=Constraint-10, ref node=m_Set-13, surface=s_Set-13_CNS_
*Kinematic
** Constraint: Constraint-11
*Coupling, constraint name=Constraint-11, ref node=m_Set-15, surface=s_Set-15_CNS_
*Kinematic
** Constraint: Constraint-12
*Coupling, constraint name=Constraint-12, ref node=m_Set-17, surface=s_Set-17_CNS_
*Kinematic
** Constraint: Eqn-1
*Equation
2
POINT3FAR, 2, 1.
POINT1FAR, 2, -1.
** Constraint: Eqn-2
*Equation
2
POINT3PART, 2, 1.
POINT1, 2, -1.
** Constraint: Eqn-3
*Equation
2
POINT2FAR, 2, 1.
POINT1FAR, 2, 1.
** Constraint: Eqn-4
*Equation
2
POINT2PART, 2, 1.
POINT1, 2, 1.
** Constraint: Eqn-5
*Equation
2
POINT1PART, 2, 1.
POINT1, 2, -1.
** Constraint: Eqn-6
*Equation
2
POINT3FAR, 1, 1.
POINT1FAR, 1, -1.
** Constraint: Eqn-7
*Equation
2
POINT3, 1, 1.
POINT1, 1, -1.
** Constraint: Eqn-8
*Equation
2
POINT2FAR, 1, 1.
POINT1FAR, 1, -1.
** Constraint: Eqn-9
*Equation
2
POINT2, 1, 1.
POINT1, 1, -1.
*End Assembly
** 
** MATERIALS
** 
*Material, name=PLA
*Elastic, moduli=INSTANTANEOUS
1649., 0.32
*Viscoelastic, time=PRONY
    0.182941,      0., 0.00048
    0.393863,      0.,  0.0048
    0.373335,      0.,   0.048
   0.0355913,      0.,    0.48
  0.00822923,      0.,     4.8
  0.00309885,      0.,     48.
 0.000915706,      0.,    480.
 0.000800485,      0.,   4800.
 0.000394178,      0.,  48000.
 0.000200121,      0., 480000.
*Trs
 60.12,   548.8, 2434.99
** 
** BOUNDARY CONDITIONS
** 
** Name: Disp-BC-1 Type: Displacement/Rotation
*Boundary
POINT1, 1, 1
** Name: Disp-BC-2 Type: Displacement/Rotation
*Boundary
POINT1, 2, 2
** Name: Disp-BC-3 Type: Displacement/Rotation
*Boundary
POINT1FAR, 1, 1
** Name: Disp-BC-4 Type: Displacement/Rotation
*Boundary
POINT1FAR, 2, 2
** Name: middle Type: Displacement/Rotation
*Boundary
MIDDLE, 1, 1
MIDDLE, 2, 2
** 
** PREDEFINED FIELDS
** 
** Name: Predefined Field-1   Type: Temperature
*Initial Conditions, type=TEMPERATURE
Set-19, 80.
** ----------------------------------------------------------------
** 
** STEP: assemble
** 
*Step, name=assemble, nlgeom=YES
*Visco
1., 100., 
** 
** BOUNDARY CONDITIONS
** 
** Name: Disp-BC-1 Type: Displacement/Rotation
*Boundary
POINT1, 1, 1, 0.025
** Name: Disp-BC-2 Type: Displacement/Rotation
*Boundary
POINT1, 2, 2, 2.
** Name: Disp-BC-3 Type: Displacement/Rotation
*Boundary
POINT1FAR, 1, 1, 0.05
** 
** OUTPUT REQUESTS
** 
*Restart, write, frequency=0
** 
** FIELD OUTPUT: F-Output-1
** 
*Output, field, variable=PRESELECT
** 
** HISTORY OUTPUT: H-Output-1
** 
*Output, history
*Energy Output
ALLSE, 
** 
** HISTORY OUTPUT: H-Output-2
** 
*Node Output, nset=POINT1
U1, U2
** 
** HISTORY OUTPUT: H-Output-3
** 
*Output, history, variable=PRESELECT
*End Step
