*Heading
** Job name: HexagonalMode1PLA_LT Model name: HexagonalMode1PLA_LT
** Generated by: Abaqus/CAE 2017
*Preprint, echo=NO, model=NO, history=NO, contact=NO
**
** PARTS
**
*Part, name=PLA
*Node
      1,   5.56491184,   3.09197688
      2,   4.69888639,   3.59197688
      3,   4.19888639,   2.72595143
      4,   5.06491184,   2.22595143
      5,   33.2513847,   20.0767708
      6,   33.2513847,   19.0767708
      7,   34.2513847,   19.0767708
      8,   34.2513847,   20.0767708
      9,   14.7937365,   19.0767708
     10,   13.9277115,   19.5767708
     11,   3.83286095,   4.09197664
     12,   3.33286095,   3.22595143
     13,   33.2513847,   21.0767708
     14,   34.2513847,   21.0767708
     15,   14.7937365,   20.0767708
     16,   13.0616856,   20.0767708
     17,   4.69888639,   36.5615654
     18,   4.19888639,   37.4275894
     19,   3.33286095,   36.9275894
     20,   3.83286095,   36.0615654
** ... 2132 like lines cut
*Element, type=CPE4
   1,    1,   26,  779,   37
   2,   26,   27,  780,  779
   3,   27,   28,  781,  780
   4,   28,    2,   29,  781
   5,   37,  779,  782,   36
   6,  779,  780,  783,  782
   7,  780,  781,  784,  783
   8,  781,   29,   30,  784
   9,   36,  782,  785,   35
  10,  782,  783,  786,  785
  11,  783,  784,  787,  786
  12,  784,   30,   31,  787
  13,   35,  785,   34,    4
  14,  785,  786,   33,   34
  15,  786,  787,   32,   33
  16,  787,   31,    3,   32
  17,    5,   38,  788,   49
  18,   38,   39,  789,  788
  19,   39,   40,  790,  789
  20,   40,    6,   41,  790
** ... 1852 like lines cut
*Element, type=CPE3
1873, 2147,  764,  125
1874,  764,   10,  125
1875, 2147,  124,  766
1876,  766,  124,  123
1877,  123,    9,  765
1878,  768,   25,  764
1879, 2147,  767,  768
1880, 2147,  766,  767
1881,  765,  766,  123
1882, 2147,  768,  764
1883, 2147,  125,  124
1884, 2148,  769,  768
1885, 2148,  767,  218
1886,  218,  767,  766
1887,  219,  766,  765
1888,  765,    9,  219
1889,  219,  218,  766
1890, 2148,  218,  217
1891, 2148,   15,  769
1892,  769,   25,  768
** ... 46 like lines cut
*Elset, elset=Set-1, generate
    1,  1938,     1
** Section: Section-1
*Solid Section, elset=Set-1, material=PLA
2.,
*End Part
**  
**
** ASSEMBLY
**
*Assembly, name=Assembly
**  
*Instance, name=PLA-1, part=PLA
  -14.216386,    -20.07677,           0.
*End Instance
**  
*Nset, nset=POINT1, instance=PLA-1
 7,
*Nset, nset=POINT1LINE, instance=PLA-1
   8,  14,  44,  45,  46, 211, 212, 213
*Nset, nset=POINT1PART, instance=PLA-1
  6, 41, 42, 43
*Nset, nset=POINT2, instance=PLA-1
 24,
*Nset, nset=POINT2LINE, instance=PLA-1
  18,  19,  24, 445, 446, 447, 685, 686, 687
*Elset, elset=POINT2LINE, instance=PLA-1
  956,  960,  964,  968, 1573, 1574, 1575, 1576
*Nset, nset=POINT2PART, instance=PLA-1
  23,  24, 682, 683, 684
*Elset, elset=POINT2PART, instance=PLA-1, generate
 1564,  1576,     4
*Nset, nset=POINT3, instance=PLA-1
 12,
*Nset, nset=POINT3LINE, instance=PLA-1
   3,   4,  12,  32,  33,  34, 205, 206, 207
*Elset, elset=POINT3LINE, instance=PLA-1
  13,  14,  15,  16, 341, 342, 343, 344
*Nset, nset=POINT3PART, instance=PLA-1
  11,  12, 202, 203, 204
*Elset, elset=POINT3PART, instance=PLA-1, generate
 332,  344,    4
*Nset, nset=Set-12, instance=PLA-1
 25,
*Nset, nset=Set-13, instance=PLA-1, generate
    1,  2152,     1
*Nset, nset="_T-Datum csys-2", internal, instance=PLA-1
  18,  19,  23,  24, 445, 446, 447, 682, 683, 684, 685, 686, 687
*Nset, nset="_T-Datum csys-3", internal, instance=PLA-1
   3,   4,  11,  12,  32,  33,  34, 202, 203, 204, 205, 206, 207
*Nset, nset="_T-Transform__T-Datum csys-3", internal
POINT3PART, 
POINT3LINE, 
*Transform, nset="_T-Transform__T-Datum csys-3"
-0.499999989702907, -0.866025409729468,           0., -0.866025409729468, 0.499999989702907,           0.
*Nset, nset="_T-Transform__T-Datum csys-2", internal
POINT2PART, 
POINT2LINE, 
*Transform, nset="_T-Transform__T-Datum csys-2"
-0.499999899426162, 0.866025461850763,           0., 0.866025461850763, 0.499999899426162,           0.
** Constraint: Eqn-1
*Equation
2
POINT3PART, 2, 1.
POINT1, 2, 1.
** Constraint: Eqn-2
*Equation
2
POINT2PART, 2, 1.
POINT1, 2, 1.
** Constraint: Eqn-3
*Equation
2
POINT1PART, 2, 1.
POINT1, 2, -1.
** Constraint: Eqn-4
*Equation
2
POINT3LINE, 1, 1.
POINT1, 1, -1.
** Constraint: Eqn-5
*Equation
2
POINT2LINE, 1, 1.
POINT1, 1, -1.
** Constraint: Eqn-6
*Equation
2
POINT1LINE, 1, 1.
POINT1, 1, -1.
*End Assembly
** 
** MATERIALS
** 
*Material, name=PLA
*Elastic, moduli=INSTANTANEOUS
1649., 0.32
*Viscoelastic, time=PRONY
    0.182941,      0., 0.00048
    0.393863,      0.,  0.0048
    0.373335,      0.,   0.048
   0.0355913,      0.,    0.48
  0.00822923,      0.,     4.8
  0.00309885,      0.,     48.
 0.000915706,      0.,    480.
 0.000800485,      0.,   4800.
 0.000394178,      0.,  48000.
 0.000200121,      0., 480000.
*Trs
 60.12,   548.8, 2434.99
** 
** BOUNDARY CONDITIONS
** 
** Name: middle Type: Displacement/Rotation
*Boundary
Set-12, 1, 1
Set-12, 2, 2
** Name: point1 Type: Displacement/Rotation
*Boundary
POINT1, 1, 1
POINT1, 2, 2
** 
** PREDEFINED FIELDS
** 
** Name: Predefined Field-1   Type: Temperature
*Initial Conditions, type=TEMPERATURE
Set-13, 20.
** ----------------------------------------------------------------
** 
** STEP: assemble
** 
*Step, name=assemble, nlgeom=YES
*Visco
1., 100., 
** 
** BOUNDARY CONDITIONS
** 
** Name: point1 Type: Displacement/Rotation
*Boundary
POINT1, 1, 1, -0.07
POINT1, 2, 2, 3.
** 
** OUTPUT REQUESTS
** 
*Restart, write, frequency=0
** 
** FIELD OUTPUT: F-Output-1
** 
*Output, field, variable=PRESELECT
** 
** HISTORY OUTPUT: H-Output-1
** 
*Output, history
*Energy Output
ALLSE, 
** 
** HISTORY OUTPUT: H-Output-2
** 
*Node Output, nset=POINT1
U1, U2
** 
** HISTORY OUTPUT: H-Output-3
** 
*Output, history, variable=PRESELECT
*End Step
