*Heading
** Job name: HexagonalMode1TPU_HT Model name: HexagonalMode1TPU_HT
** Generated by: Abaqus/CAE 2017
*Preprint, echo=NO, model=NO, history=NO, contact=NO
**
** PARTS
**
*Part, name=TPU
*Node
      1,   26.8169327,  -1.21589398
      2,   33.1263771,   12.9675398
      3,   32.2148972,   13.3788853
      4,   25.7775745,  -0.88523531
      5,   27.6005325,  -1.70792699
      6,   34.0378571,   12.5561943
      7,   33.0268707,   13.9625769
      8,   23.8983803,   26.5184307
      9,   23.0804672,   26.0858307
     10,   33.9383507,   13.5512314
     11,   49.6096077,    14.113369
     12,   49.3762856,   15.1788101
     13,   33.8388481,   14.5462685
     14,   24.7044182,   27.2532139
     15,   49.4105988,   16.1034431
     16,    20.399765, -0.960700095
     17,    19.899765,  -1.82672548
     18,   25.0959167,  -4.82672548
     19,   22.2418156,  -2.02420831
     20,   24.0959167,  -3.09467459
** ... 2222 like lines cut
*Element, type=CPE4
  1,    1,   38,  893,  165
  2,   38,   39,  894,  893
  3,   39,   40,  895,  894
  4,   40,   41,  896,  895
  5,   41,   42,  897,  896
  6,   42,   43,  898,  897
  7,   43,   44,  899,  898
  8,   44,   45,  900,  899
  9,   45,   46,  901,  900
 10,   46,   47,  902,  901
 11,   47,   48,  903,  902
 12,   48,   49,  904,  903
 13,   49,   50,  905,  904
 14,   50,   51,  906,  905
 15,   51,   52,  907,  906
 16,   52,   53,  908,  907
 17,   53,   54,  909,  908
 18,   54,   55,  910,  909
 19,   55,   56,  911,  910
 20,   56,   57,  912,  911
** ... 1414 like lines cut
*Element, type=CPE3
1435, 1853,  776,  777
1436,  779,    3,  101
1437,  101,  778,  779
1438,  100,  777,  778
1439, 1853,  780,  776
1440,  101,  100,  778
1441, 1853,    2,  780
1442,  780,   34,  776
1443, 1853,  777,  100
1444, 1853,  100,    2
1445,  783,  231,  782
1446, 1854,    2,  231
1447,  782,  231,  230
1448,  230,    6,  781
1449,  781,  782,  230
1450, 1854,  231,  783
1451, 1854,  784,  780
1452,  784,   34,  780
1453, 1854,  783,  784
1454, 1854,  780,    2
** ... 958 like lines cut
*Nset, nset=Set-1, generate
    1,  2242,     1
*Elset, elset=Set-1, generate
    1,  2412,     1
** Section: TPU
*Solid Section, elset=Set-1, material=TPU
5.,
*End Part
**  
**
** ASSEMBLY
**
*Assembly, name=Assembly
**  
*Instance, name=TPU-1, part=TPU
  -33.363867,   -13.493783,           0.
*End Instance
**  
*Nset, nset=Set-11, instance=TPU-1
 30,
*Nset, nset=Set-12, instance=TPU-1
 34,
*Nset, nset=Set-13, instance=TPU-1
 24,
*Nset, nset=Set-14, instance=TPU-1
 18,
*Nset, nset=Set-15, instance=TPU-1, generate
    1,  2242,     1
*Elset, elset=Set-15, instance=TPU-1, generate
    1,  2412,     1
*Nset, nset=middle, instance=TPU-1
 34,
*Nset, nset=point1, instance=TPU-1
 30,
*Nset, nset=point1line, instance=TPU-1
  29, 727, 728, 729, 730, 731, 732, 733, 734, 735, 736, 737, 738, 739, 740, 741
 742, 743, 744, 745, 746, 747, 748, 749, 750
*Nset, nset=point1part, instance=TPU-1
  33, 751, 752, 753
*Nset, nset=point2, instance=TPU-1
 24,
*Nset, nset=point2line, instance=TPU-1
  23,  24, 675, 676, 677, 678, 679, 680, 681, 682, 683, 684, 685, 686, 687, 688
 689, 690, 691, 692, 693, 694, 695, 696, 697, 698
*Nset, nset=point2part, instance=TPU-1
  24,  27, 699, 700, 701
*Nset, nset=point3, instance=TPU-1
 18,
*Nset, nset=point3line, instance=TPU-1
  17,  18, 623, 624, 625, 626, 627, 628, 629, 630, 631, 632, 633, 634, 635, 636
 637, 638, 639, 640, 641, 642, 643, 644, 645, 646
*Nset, nset=point3part, instance=TPU-1
  18,  21, 647, 648, 649
*Nset, nset="_T-Datum csys-2", internal
point2line, 
point2part, 
*Transform, nset="_T-Datum csys-2"
-0.499999868285953, 0.866025479829566,           0., 0.866025479829566, 0.499999868285953,           0.
*Nset, nset="_T-Datum csys-3", internal
point3line, 
point3part, 
*Transform, nset="_T-Datum csys-3"
-0.500000217950969, -0.866025277950351,           0., -0.866025277950351, 0.500000217950969,           0.
** Constraint: point1line
*Equation
2
point1line, 1, 1.
point1, 1, -1.
** Constraint: point1part
*Equation
2
point1part, 2, 1.
point1, 2, -1.
** Constraint: point2line
*Equation
2
point2line, 1, 1.
point1, 1, -1.
** Constraint: point2part
*Equation
2
point2part, 2, 1.
point1, 2, 1.
** Constraint: point3line
*Equation
2
point3line, 1, 1.
point1, 1, -1.
** Constraint: point3part
*Equation
2
point3part, 2, 1.
point1, 2, 1.
*End Assembly
** 
** MATERIALS
** 
*Material, name=TPU
*Elastic
 95.4141,   0.32, 18.017
 95.0917,   0.32,  18.14
 94.6418,   0.32, 18.301
 94.1044,   0.32, 18.478
 93.5199,   0.32, 18.639
 93.0493,   0.32, 18.786
 92.6903,   0.32, 18.913
 92.3012,   0.32, 19.015
 91.6654,   0.32, 19.173
 91.2036,   0.32, 19.327
 90.6791,   0.32, 19.523
 90.2388,   0.32, 19.699
 89.8706,   0.32,  19.85
 89.3535,   0.32, 19.985
 88.9383,   0.32, 20.109
 88.5272,   0.32, 20.234
 87.9949,   0.32, 20.434
 87.6281,   0.32, 20.573
 87.1839,   0.32, 20.717
 86.6956,   0.32, 20.852
** ... 407 like lines cut
** 
** BOUNDARY CONDITIONS
** 
** Name: middle Type: Displacement/Rotation
*Boundary
Set-12, 1, 1
Set-12, 2, 2
** Name: point1 Type: Displacement/Rotation
*Boundary
Set-11, 1, 1
Set-11, 2, 2
** 
** PREDEFINED FIELDS
** 
** Name: TEMPERATURE   Type: Temperature
*Initial Conditions, type=TEMPERATURE
Set-15, 80.
** ----------------------------------------------------------------
** 
** STEP: ASSEMBLE
** 
*Step, name=ASSEMBLE, nlgeom=YES
*Static, direct
0.01, 1., 
** 
** BOUNDARY CONDITIONS
** 
** Name: point1 Type: Displacement/Rotation
*Boundary
Set-11, 1, 1, 0.07
Set-11, 2, 2, -3.
** 
** OUTPUT REQUESTS
** 
*Restart, write, frequency=0
** 
** FIELD OUTPUT: F-Output-1
** 
*Output, field, variable=PRESELECT
** 
** HISTORY OUTPUT: H-Output-3
** 
*Output, history
*Energy Output
ALLSE, 
** 
** HISTORY OUTPUT: H-Output-2
** 
*Node Output, nset=point1
U1, U2
** 
** HISTORY OUTPUT: H-Output-1
** 
*Output, history, variable=PRESELECT
*End Step
