*Heading
** Job name: SquareMode2TPU_HT Model name: SquareMode2TPU_HT
** Generated by: Abaqus/CAE 2017
*Preprint, echo=NO, model=NO, history=NO, contact=NO
**
** PARTS
**
*Part, name=TPU
*Node
      1,   41.8061562,   20.4759445
      2,   35.7863083,   21.0779305
      3,   35.5604172,   20.0955315
      4,   41.7066536,   19.4809074
      5,   27.8260098,   21.0779305
      6,   22.8011951,    20.575449
      7,   22.9006996,   19.5804119
      8,    28.051899,   20.0955315
      9,    20.811121,    20.376442
     10,   15.7863064,   19.8739605
     11,   15.7594242,   18.8662834
     12,   20.9106236,   19.3814049
     13,    7.8260088,   19.8739605
     14,   1.80615783,   20.4759445
     15,   1.70665407,   19.4809074
     16,   7.85289145,   18.8662834
     17,   21.8061581,  0.475945115
     18,   22.4081421,    6.4957962
     19,    21.425745,   6.72168636
     20,    20.811121,  0.575448811
** ... 3441 like lines cut
*Element, type=CPE4
 1,    1,   94, 1238,  145
 2,   94,   95, 1239, 1238
 3,   95,   96, 1240, 1239
 4,   96,   97, 1241, 1240
 5,   97,   98, 1242, 1241
 6,   98,   99, 1243, 1242
 7,   99,  100, 1244, 1243
 8,  100,  101, 1245, 1244
 9,  101,  102, 1246, 1245
10,  102,  103, 1247, 1246
11,  103,  104, 1248, 1247
12,  104,  105, 1249, 1248
13,  105,  106, 1250, 1249
14,  106,  107, 1251, 1250
15,  107,  108, 1252, 1251
16,  108,  109, 1253, 1252
17,  109,  110, 1254, 1253
18,  110,  111, 1255, 1254
19,  111,  112, 1256, 1255
20,  112,  113, 1257, 1256
** ... 1792 like lines cut
*Element, type=CPE3
1813,   32,  479, 2438
1814, 2438,  999,   32
1815,  479,  478, 2439
1816, 2439, 2438,  479
1817,  478,   21, 2440
1818, 2440, 2439,  478
1819,   21,  381, 2441
1820, 2441, 2440,   21
1821,  381,  380, 2442
1822, 2442, 2441,  381
1823,  380,   23, 2443
1824, 2443, 2442,  380
1825,   23,  966, 2444
1826, 2444, 2443,   23
1827,  966,  967, 2445
1828, 2445, 2444,  966
1829,  967,  968, 2446
1830, 2446, 2445,  967
1831,  968,  969, 2447
1832, 2447, 2446,  968
** ... 2428 like lines cut
*Nset, nset=Set-1, generate
    1,  3461,     1
*Elset, elset=Set-1, generate
    1,  4260,     1
** Section: TPU
*Solid Section, elset=Set-1, material=TPU
5.,
*End Part
**  
**
** ASSEMBLY
**
*Assembly, name=Assembly
**  
*Instance, name=TPU-1, part=TPU
  -21.806158,   -20.475945,           0.
*End Instance
**  
*Nset, nset=Set-1, instance=TPU-1
 67,
*Nset, nset=Set-2, instance=TPU-1
 14,
*Nset, nset=Set-3, instance=TPU-1
 1,
*Nset, nset=Set-4, instance=TPU-1
 29,
*Nset, nset=Set-5, instance=TPU-1
 17,
*Nset, nset=Set-18, instance=TPU-1
 1,
*Nset, nset=Set-19, instance=TPU-1
 52,
*Nset, nset=Set-20, instance=TPU-1, generate
    1,  3461,     1
*Elset, elset=Set-20, instance=TPU-1, generate
    1,  4260,     1
*Nset, nset=bottom, instance=TPU-1
 58,
*Nset, nset=bottompart, instance=TPU-1
  57,  71, 774, 775, 776, 849, 850, 851
*Nset, nset=farbottom, instance=TPU-1
 17,
*Nset, nset=farleft, instance=TPU-1
 14,
*Nset, nset=farright, instance=TPU-1
 1,
*Nset, nset=fartop, instance=TPU-1
 29,
*Nset, nset=left, instance=TPU-1
 73,
*Nset, nset=leftpart, instance=TPU-1
  72,  85, 870, 871, 872, 945, 946, 947
*Nset, nset=m_Set-21, instance=TPU-1
 1,
*Nset, nset=m_Set-22, instance=TPU-1
 14,
*Nset, nset=m_Set-23, instance=TPU-1
 29,
*Nset, nset=m_Set-24, instance=TPU-1
 17,
*Nset, nset=right, instance=TPU-1
 52,
*Nset, nset=rightpart, instance=TPU-1
  51,  66, 730, 731, 732, 821, 822, 823
*Nset, nset=top, instance=TPU-1
 46,
*Nset, nset=toppart, instance=TPU-1
  45,  81, 686, 687, 688, 917, 918, 919
*Elset, elset=_s_Surf-1_S4, internal, instance=TPU-1, generate
  1,  51,  25
*Elset, elset=_s_Surf-1_S2, internal, instance=TPU-1, generate
 916,  966,   25
*Surface, type=ELEMENT, name=s_Surf-1
_s_Surf-1_S4, S4
_s_Surf-1_S2, S2
*Elset, elset=_s_Surf-2_S2, internal, instance=TPU-1, generate
 226,  276,   25
*Elset, elset=_s_Surf-2_S4, internal, instance=TPU-1, generate
 754,  804,   25
*Surface, type=ELEMENT, name=s_Surf-2
_s_Surf-2_S2, S2
_s_Surf-2_S4, S4
*Elset, elset=_s_Surf-3_S2, internal, instance=TPU-1, generate
 502,  552,   25
*Elset, elset=_s_Surf-3_S4, internal, instance=TPU-1, generate
 1030,  1080,    25
*Surface, type=ELEMENT, name=s_Surf-3
_s_Surf-3_S2, S2
_s_Surf-3_S4, S4
*Elset, elset=_s_Surf-4_S4, internal, instance=TPU-1, generate
 277,  327,   25
*Elset, elset=_s_Surf-4_S2, internal, instance=TPU-1, generate
 640,  690,   25
*Surface, type=ELEMENT, name=s_Surf-4
_s_Surf-4_S4, S4
_s_Surf-4_S2, S2
** Constraint: bottom
*Equation
2
bottompart, 1, 1.
bottom, 1, -1.
** Constraint: bottom-right
*Equation
2
bottom, 2, 1.
right, 1, 1.
** Constraint: bottom-right2
*Equation
2
bottom, 1, 1.
right, 2, -1.
** Constraint: coupling-bottom
*Coupling, constraint name=coupling-bottom, ref node=m_Set-24, surface=s_Surf-4
*Kinematic
** Constraint: coupling-left
*Coupling, constraint name=coupling-left, ref node=m_Set-22, surface=s_Surf-2
*Kinematic
** Constraint: coupling-right
*Coupling, constraint name=coupling-right, ref node=m_Set-21, surface=s_Surf-1
*Kinematic
** Constraint: coupling-top
*Coupling, constraint name=coupling-top, ref node=m_Set-23, surface=s_Surf-3
*Kinematic
** Constraint: farbottom-right
*Equation
2
farbottom, 2, 1.
farright, 1, 1.
** Constraint: farleft-right
*Equation
2
farleft, 1, 1.
farright, 1, 1.
** Constraint: fartop-right
*Equation
2
fartop, 2, 1.
farright, 1, -1.
** Constraint: left
*Equation
2
leftpart, 2, 1.
left, 2, -1.
** Constraint: left-right
*Equation
2
left, 1, 1.
right, 1, 1.
** Constraint: left-right2
*Equation
2
left, 2, 1.
right, 2, 1.
** Constraint: right
*Equation
2
rightpart, 2, 1.
right, 2, -1.
** Constraint: top
*Equation
2
toppart, 1, 1.
top, 1, -1.
** Constraint: top-right
*Equation
2
top, 2, 1.
right, 1, -1.
** Constraint: top-right2
*Equation
2
top, 1, 1.
right, 2, 1.
*End Assembly
** 
** MATERIALS
** 
*Material, name=TPU
*Elastic
 95.4141,   0.32, 18.017
 95.0917,   0.32,  18.14
 94.6418,   0.32, 18.301
 94.1044,   0.32, 18.478
 93.5199,   0.32, 18.639
 93.0493,   0.32, 18.786
 92.6903,   0.32, 18.913
 92.3012,   0.32, 19.015
 91.6654,   0.32, 19.173
 91.2036,   0.32, 19.327
 90.6791,   0.32, 19.523
 90.2388,   0.32, 19.699
 89.8706,   0.32,  19.85
 89.3535,   0.32, 19.985
 88.9383,   0.32, 20.109
 88.5272,   0.32, 20.234
 87.9949,   0.32, 20.434
 87.6281,   0.32, 20.573
 87.1839,   0.32, 20.717
 86.6956,   0.32, 20.852
** ... 407 like lines cut
** 
** BOUNDARY CONDITIONS
** 
** Name: farright Type: Displacement/Rotation
*Boundary
Set-18, 1, 1
** Name: fixedbottom Type: Displacement/Rotation
*Boundary
Set-5, 1, 1
** Name: fixedleft Type: Displacement/Rotation
*Boundary
Set-2, 2, 2
** Name: fixedright Type: Displacement/Rotation
*Boundary
Set-3, 2, 2
** Name: fixedtop Type: Displacement/Rotation
*Boundary
Set-4, 1, 1
** Name: middle Type: Displacement/Rotation
*Boundary
Set-1, 1, 1
Set-1, 2, 2
** Name: right Type: Displacement/Rotation
*Boundary
Set-19, 1, 1
Set-19, 2, 2
** 
** PREDEFINED FIELDS
** 
** Name: Temperature   Type: Temperature
*Initial Conditions, type=TEMPERATURE
Set-20, 80.
** ----------------------------------------------------------------
** 
** STEP: assemble
** 
*Step, name=assemble, nlgeom=YES
*Static, direct
0.01, 1., 
** 
** BOUNDARY CONDITIONS
** 
** Name: farright Type: Displacement/Rotation
*Boundary
Set-18, 1, 1, -0.05
** Name: right Type: Displacement/Rotation
*Boundary
Set-19, 1, 1, -0.025
Set-19, 2, 2, -2.
** 
** OUTPUT REQUESTS
** 
*Restart, write, frequency=0
** 
** FIELD OUTPUT: F-Output-1
** 
*Output, field, variable=PRESELECT
** 
** HISTORY OUTPUT: H-Output-3
** 
*Output, history
*Energy Output
ALLSE, 
** 
** HISTORY OUTPUT: H-Output-2
** 
*Node Output, nset=right
U1, U2
** 
** HISTORY OUTPUT: H-Output-1
** 
*Output, history, variable=PRESELECT
*End Step
