*Heading
** Job name: SquareMode2PLA_HT_PATTERN Model name: SquareMode2PLA_HT_PATTERN
** Generated by: Abaqus/CAE 2017
*Preprint, echo=NO, model=NO, history=NO, contact=NO
**
** PARTS
**
*Part, name=PLA
*Node
      1,   5.89167643,    -7.108109
      2,   4.89167643,    -7.108109
      3,   4.89167643,  -14.0831089
      4,   4.89167643,  -15.0831089
      5,   5.89167643,  -15.0831089
      6,  -5.08332396,   3.86689091
      7,  -5.08332396,   4.86689091
      8,  -14.0583239,   4.86689091
      9,  -13.0583239,   3.86689091
     10,  -14.0583239,   3.86689091
     11,   25.8416767,   4.86689091
     12,   16.8666763,   4.86689091
     13,   24.8416767,   3.86689091
     14,   16.8666763,   3.86689091
     15,   25.8416767,   3.86689091
     16,   6.89167643,    -7.108109
     17,   6.89167643,  -14.0831089
     18,   6.89167643,  -15.0831089
     19,   5.89167643,    -6.108109
     20,   4.89167643,    -6.108109
** ... 2797 like lines cut
*Element, type=CPE4
   1,    1,   66, 1054,  132
   2,   66,   67, 1055, 1054
   3,   67,   68, 1056, 1055
   4,   68,    2,   69, 1056
   5,  132, 1054, 1057,  131
   6, 1054, 1055, 1058, 1057
   7, 1055, 1056, 1059, 1058
   8, 1056,   69,   70, 1059
   9,  131, 1057, 1060,  130
  10, 1057, 1058, 1061, 1060
  11, 1058, 1059, 1062, 1061
  12, 1059,   70,   71, 1062
  13,  130, 1060, 1063,  129
  14, 1060, 1061, 1064, 1063
  15, 1061, 1062, 1065, 1064
  16, 1062,   71,   72, 1065
  17,  129, 1063, 1066,  128
  18, 1063, 1064, 1067, 1066
  19, 1064, 1065, 1068, 1067
  20, 1065,   72,   73, 1068
** ... 2476 like lines cut
*Nset, nset=SET-1, generate
    1,  2817,     1
*Elset, elset=SET-1, generate
    1,  2496,     1
** Section: Section-1-SET-1
*Solid Section, elset=SET-1, material=PLA
2.,
*End Part
**  
**
** ASSEMBLY
**
*Assembly, name=Assembly
**  
*Instance, name=PLA-1, part=PLA
   -5.891676,    -4.866891,           0.
*End Instance
**  
*Nset, nset=BOTTOM, instance=PLA-1
 38,
*Nset, nset=BOTTOMPART, instance=PLA-1
  20, 513, 514, 515, 670, 671, 672, 673
*Nset, nset=FARBOTTOM, instance=PLA-1
 5,
*Nset, nset=FARLEFT, instance=PLA-1
 8,
*Nset, nset=FARRIGHT, instance=PLA-1
 11,
*Nset, nset=FARTOP, instance=PLA-1
 28,
*Nset, nset=LEFT, instance=PLA-1
 41,
*Nset, nset=LEFTPART, instance=PLA-1
  23,  54, 528, 529, 530, 742, 743, 744
*Nset, nset=RIGHT, instance=PLA-1
 35,
*Nset, nset=RIGHTPART, instance=PLA-1
  14,  49, 498, 499, 500, 592, 593, 594
*Nset, nset=Set-21, instance=PLA-1
 61,
*Nset, nset=Set-22, instance=PLA-1, generate
    1,  2817,     1
*Nset, nset=TOP, instance=PLA-1
 57,
*Nset, nset=TOPPART, instance=PLA-1
  45,  64, 757, 758, 759, 977, 978, 979
*Nset, nset=m_Set-13, instance=PLA-1
 11,
*Nset, nset=m_Set-15, instance=PLA-1
 5,
*Nset, nset=m_Set-17, instance=PLA-1
 8,
*Nset, nset=m_Set-19, instance=PLA-1
 28,
*Nset, nset=s_Set-13, instance=PLA-1
  11,  15,  33, 280, 281, 282, 455, 456, 457
*Nset, nset=s_Set-15, instance=PLA-1
   4,   5,  18,  99, 100, 101, 286, 287, 288
*Nset, nset=s_Set-17, instance=PLA-1
   8,  10,  25, 171, 172, 173, 374, 375, 376
*Nset, nset=s_Set-19, instance=PLA-1
  28,  30,  46, 415, 416, 417, 577, 578, 579
*Surface, type=NODE, name=s_Set-13_CNS_, internal
s_Set-13, 1.
*Surface, type=NODE, name=s_Set-15_CNS_, internal
s_Set-15, 1.
*Surface, type=NODE, name=s_Set-17_CNS_, internal
s_Set-17, 1.
*Surface, type=NODE, name=s_Set-19_CNS_, internal
s_Set-19, 1.
** Constraint: Constraint-14
*Coupling, constraint name=Constraint-14, ref node=m_Set-13, surface=s_Set-13_CNS_
*Kinematic
** Constraint: Constraint-15
*Coupling, constraint name=Constraint-15, ref node=m_Set-15, surface=s_Set-15_CNS_
*Kinematic
** Constraint: Constraint-16
*Coupling, constraint name=Constraint-16, ref node=m_Set-17, surface=s_Set-17_CNS_
*Kinematic
** Constraint: Constraint-17
*Coupling, constraint name=Constraint-17, ref node=m_Set-19, surface=s_Set-19_CNS_
*Kinematic
** Constraint: Eqn-1
*Equation
2
LEFT, 2, 1.
RIGHT, 2, 1.
** Constraint: Eqn-2
*Equation
2
RIGHTPART, 2, 1.
RIGHT, 2, -1.
** Constraint: Eqn-3
*Equation
2
BOTTOM, 2, 1.
RIGHT, 1, 1.
** Constraint: Eqn-4
*Equation
2
TOP, 2, 1.
RIGHT, 1, -1.
** Constraint: Eqn-5
*Equation
2
LEFTPART, 2, 1.
LEFT, 2, -1.
** Constraint: Eqn-6
*Equation
2
FARBOTTOM, 2, 1.
FARRIGHT, 1, 1.
** Constraint: Eqn-7
*Equation
2
FARTOP, 2, 1.
FARRIGHT, 1, -1.
** Constraint: Eqn-8
*Equation
2
TOPPART, 1, 1.
TOP, 1, -1.
** Constraint: Eqn-9
*Equation
2
TOP, 1, 1.
RIGHT, 2, 1.
** Constraint: Eqn-10
*Equation
2
BOTTOM, 1, 1.
RIGHT, 2, -1.
** Constraint: Eqn-11
*Equation
2
LEFT, 1, 1.
RIGHT, 1, 1.
** Constraint: Eqn-12
*Equation
2
FARLEFT, 1, 1.
FARRIGHT, 1, 1.
** Constraint: Eqn-13
*Equation
2
BOTTOMPART, 1, 1.
BOTTOM, 1, -1.
*End Assembly
** 
** MATERIALS
** 
*Material, name=PLA
*Elastic, moduli=INSTANTANEOUS
1649., 0.32
*Viscoelastic, time=PRONY
    0.182941,      0., 0.00048
    0.393863,      0.,  0.0048
    0.373335,      0.,   0.048
   0.0355913,      0.,    0.48
  0.00822923,      0.,     4.8
  0.00309885,      0.,     48.
 0.000915706,      0.,    480.
 0.000800485,      0.,   4800.
 0.000394178,      0.,  48000.
 0.000200121,      0., 480000.
*Trs
 60.12,   548.8, 2434.99
** 
** BOUNDARY CONDITIONS
** 
** Name: MIDDLE Type: Displacement/Rotation
*Boundary
Set-21, 1, 1
Set-21, 2, 2
** Name: RIGHT Type: Displacement/Rotation
*Boundary
RIGHT, 1, 1
RIGHT, 2, 2
** Name: farbottom Type: Displacement/Rotation
*Boundary
FARBOTTOM, 1, 1
** Name: farleft Type: Displacement/Rotation
*Boundary
FARLEFT, 2, 2
** Name: farright Type: Displacement/Rotation
*Boundary
FARRIGHT, 1, 1
FARRIGHT, 2, 2
** Name: fartop Type: Displacement/Rotation
*Boundary
FARTOP, 1, 1
** 
** PREDEFINED FIELDS
** 
** Name: Predefined Field-1   Type: Temperature
*Initial Conditions, type=TEMPERATURE
Set-22, 80.
** ----------------------------------------------------------------
** 
** STEP: assemble
** 
*Step, name=assemble, nlgeom=YES
*Visco
1., 100., 
** 
** BOUNDARY CONDITIONS
** 
** Name: RIGHT Type: Displacement/Rotation
*Boundary
RIGHT, 1, 1, 0.02325
RIGHT, 2, 2, 1.86
** Name: farright Type: Displacement/Rotation
*Boundary
FARRIGHT, 1, 1, 0.0465
** 
** OUTPUT REQUESTS
** 
*Restart, write, frequency=0
** 
** FIELD OUTPUT: F-Output-1
** 
*Output, field, variable=PRESELECT
** 
** HISTORY OUTPUT: H-Output-1
** 
*Output, history
*Energy Output
ALLSE, 
** 
** HISTORY OUTPUT: H-Output-2
** 
*Node Output, nset=RIGHT
U1, U2
** 
** HISTORY OUTPUT: H-Output-3
** 
*Output, history, variable=PRESELECT
*End Step
